<?xml version='1.0' encoding='utf-8'?>
<net version="1.20"><location netOffset="-269172.47,-4678872.26" convBoundary="0.00,0.00,10136.41,10332.18" origBoundary="-83.799461,42.229559,-83.676423,42.323351" projParameter="+proj=utm +zone=17 +ellps=WGS84 +datum=WGS84 +units=m +no_defs" />

    </net>